04c4e4d7213d036d6aaed392841496d272146312c0290f728b7400fccd15bb1b  rustc-1.36.0-src.tar.gz
b65bab8768ab532cb1348f47904b6720b77de242b52c68ed1f0c45759640bba0  0002-Fix-LLVM-build.patch
350e440dd3b63d441f57bd65696665af5b8783cfbf6b1630446a3c0f0d944a48  0003-Allow-rustdoc-to-work-when-cross-compiling-on-musl.patch
fecb08af9aae988e07cd71bd484a735c565ab84585663c0398df2c2f7b201ddc  0004-Require-static-native-libraries-when-linking-static-.patch
2d1deb8ad16bf905824414e16b8bde05e932e3ee6731e0bc1fa431c22a8f8fcf  0005-Remove-nostdlib-and-musl_root-from-musl-targets.patch
22ce4bc6703790cfbaca71bf5f1528f6b0de9228188fe77ca4140d48542a0600  0006-Prefer-libgcc_eh-over-libunwind-for-musl.patch
3cc28a1b60b2adc9bb5e23c43a5c0ff6de9fc8dbc0a3af8fbd43ab2b98239bf5  0007-runtest-Fix-proc-macro-tests-on-musl-hosts.patch
76400e57acf9cb8583e5e590403bc7c0ee5ecee3a1ca73b994d983210388b4c6  0008-test-use-extern-for-plugins-Don-t-assume-multilib.patch
32092cf8b0d74c7c5bf7facc0b2998a16cac6c98dc40dadd22f6138b0e2205d1  0009-test-sysroot-crates-are-unstable-Fix-test-when-rpath.patch
8c7712c0dbe1e9fb81fb8067c6cbb1c59098f921ff2d0f8988eb72da01b64ff0  0010-Ignore-broken-and-non-applicable-tests.patch
c0aef6d87a8a1703cc9c7093dceb186e3667d3003c1a2ca772fb92018b241e57  0011-Link-stage-2-tools-dynamically-to-libstd.patch
fabb9c0450b157f796043547f12579a1433ef33a8545b06c4ee0b8446c6e2d1b  0012-Move-debugger-scripts-to-usr-share-rust.patch
4ac4dccf1d7ab9e4e8b2b64f24d44bf3e93cf6bf6b684f999de585dcfdb98e21  0029-musl-dont-use-crt-static.patch
322c129fdbc0d1e2cc69cd33a1ae968596eaaa1abc2357d09442e7ab981a00ca  0030-libc-linkage.patch
d0f2d0cf934c0d45b412375e32ceba2e53e3271d76ab362f70dd3e18262179e1  0031-typenum-pmmx.patch
ac213e431a01ba0568f0985e2a8bd225fde0a3cfbc1b6e5eb196d71ee70775b5  0091-lzma-sys-cross-ldflags.patch
d9cb8e2cb78d73e0ef44dff2638d96187df9646af52a523a3057645e048c8e18  0093-use-elfv2-everywhere.patch
dd06bd69e99c77b81993f470832e1522cd26121f706b82f9b5c82a248231e8dc  llvm-with-dependencies.patch
