https://static.rust-lang.org/dist/rustc-1.36.0-src.tar.gz
patches/0002-Fix-LLVM-build.patch
patches/0003-Allow-rustdoc-to-work-when-cross-compiling-on-musl.patch
patches/0004-Require-static-native-libraries-when-linking-static-.patch
patches/0005-Remove-nostdlib-and-musl_root-from-musl-targets.patch
patches/0006-Prefer-libgcc_eh-over-libunwind-for-musl.patch
patches/0007-runtest-Fix-proc-macro-tests-on-musl-hosts.patch
patches/0008-test-use-extern-for-plugins-Don-t-assume-multilib.patch
patches/0009-test-sysroot-crates-are-unstable-Fix-test-when-rpath.patch
patches/0010-Ignore-broken-and-non-applicable-tests.patch
patches/0011-Link-stage-2-tools-dynamically-to-libstd.patch
patches/0012-Move-debugger-scripts-to-usr-share-rust.patch
patches/0029-musl-dont-use-crt-static.patch
patches/0030-libc-linkage.patch
patches/0031-typenum-pmmx.patch
patches/0091-lzma-sys-cross-ldflags.patch
patches/0093-use-elfv2-everywhere.patch
patches/llvm-with-dependencies.patch
